<?xml version="1.0" encoding="UTF-8"?>

<!-- generated on Sat 24 Apr 2021 11:36:16 AM EDT by Eclipse SUMO netedit Version 1.4.0
<configuration xmlns:xsi="http://www.w3.org/2001/XMLSchema-instance" xsi:noNamespaceSchemaLocation="http://sumo.dlr.de/xsd/netconvertConfiguration.xsd">

    <input>
        <sumo-net-file value="/home/zac/Documents/Repositories/VirtualTrafficPlatform/src/test/resources/TwoNodes.net.xml"/>
    </input>

    <output>
        <output-file value="/home/zac/Documents/Repositories/VirtualTrafficPlatform/src/test/resources/TwoNodes.net.xml"/>
    </output>

    <processing>
        <geometry.min-radius.fix.railways value="false"/>
        <geometry.max-grade.fix value="false"/>
        <offset.disable-normalization value="true"/>
        <lefthand value="false"/>
    </processing>

    <junctions>
        <no-internal-links value="true"/>
        <no-turnarounds value="true"/>
        <junctions.corner-detail value="5"/>
        <junctions.limit-turn-speed value="5.5"/>
        <rectangular-lane-cut value="false"/>
    </junctions>

    <pedestrian>
        <walkingareas value="false"/>
    </pedestrian>

    <report>
        <aggregate-warnings value="5"/>
    </report>

</configuration>
-->

<net version="1.3" junctionCornerDetail="5" limitTurnSpeed="5.50" xmlns:xsi="http://www.w3.org/2001/XMLSchema-instance" xsi:noNamespaceSchemaLocation="http://sumo.dlr.de/xsd/net_file.xsd">

    <location netOffset="0.00,0.00" convBoundary="0.00,0.00,600.00,0.00" origBoundary="-10000000000.00,-10000000000.00,10000000000.00,10000000000.00" projParameter="!"/>

    <edge id="1-2" from="1" to="2" priority="-1">
        <lane id="1-2_0" index="0" speed="13.89" length="300.00" shape="0.00,-1.60 300.00,-1.60"/>
    </edge>
    <edge id="2-1" from="2" to="1" priority="-1">
        <lane id="2-1_0" index="0" speed="13.89" length="300.00" shape="300.00,1.60 0.00,1.60"/>
    </edge>
    <edge id="2-3" from="2" to="3" priority="-1">
        <lane id="2-3_0" index="0" speed="13.89" length="300.00" shape="300.00,-1.60 600.00,-1.60"/>
    </edge>
    <edge id="3-2" from="3" to="2" priority="-1">
        <lane id="3-2_0" index="0" speed="13.89" length="300.00" shape="600.00,1.60 300.00,1.60"/>
    </edge>

    <junction id="1" type="dead_end" x="0.00" y="0.00" incLanes="2-1_0" intLanes="" shape="0.00,0.00 0.00,3.20 0.00,0.00"/>
    <junction id="2" type="priority" x="300.00" y="0.00" incLanes="3-2_0 1-2_0" intLanes="" shape="300.00,3.20 300.00,-3.20 300.00,3.20">
        <request index="0" response="00" foes="00"/>
        <request index="1" response="00" foes="00"/>
    </junction>
    <junction id="3" type="dead_end" x="600.00" y="0.00" incLanes="2-3_0" intLanes="" shape="600.00,0.00 600.00,-3.20 600.00,0.00"/>

    <connection from="1-2" to="2-3" fromLane="0" toLane="0" dir="s" state="M"/>
    <connection from="3-2" to="2-1" fromLane="0" toLane="0" dir="s" state="M"/>

</net>
