<?xml version="1.0" encoding="UTF-8"?>

<routes xmlns:xsi="http://www.w3.org/2001/XMLSchema-instance" xsi:noNamespaceSchemaLocation="http://sumo.dlr.de/xsd/routes_file.xsd">
  <flow id="c637beb6-b582-4f96-a2ab-82fb934ea867" type="Car" from="1-2" begin="0.0" end="3600.0" departSpeed="random" departLane="best" departPos="0.0" to="2-3" period="3600.0"/>
</routes>
